VERS 130723 1 23487
MODE SEQ
NAME LAIKIN LENS
UNIT IN X W X CM MR CPMM
ENPD 4.0
SURF 0
  TYPE STANDARD
  CURV 0.0 0 0 0 0 ""
  HIDE 0 0 0 0 0 0 0 0 0 0
  MIRR 2 0
  SLAB 11
  DISZ INFINITY
  DIAM 0 0 0 0 1 ""
  POPS 0 0 0 0 0 0 0 0 1 1 1 1 0 0 0 0
SURF 1
  TYPE STANDARD
  CURV 2.815386651126000100E-001 0 0 0 0 ""
  HIDE 0 0 0 0 0 0 0 0 0 0
  MIRR 2 0
  SLAB 12
  DISZ 1.39909
  GLAS LAF2 0 0 0 0 0 0 0 0 0 0 
  DIAM 2.21499991 1 0 0 1 ""
  POPS 0 0 0 0 0 0 0 0 1 1 1 1 0 0 0 0
  FLAP 0 2.21499991 0
SURF 2
  TYPE STANDARD
  CURV 0.0 0 0 0 0 ""
  HIDE 0 0 0 0 0 0 0 0 0 0
  MIRR 2 0
  SLAB 13
  DISZ 8.77E-3
  DIAM 2.21499991 1 0 0 1 ""
  POPS 0 0 0 0 0 0 0 0 1 1 1 1 0 0 0 0
  FLAP 0 2.21499991 0
SURF 3
  TYPE STANDARD
  CURV 5.867373880798000300E-001 0 0 0 0 ""
  HIDE 0 0 0 0 0 0 0 0 0 0
  MIRR 2 0
  SLAB 1
  DISZ 9.38524E-1
  GLAS PSK3 0 0 0 0 0 0 0 0 0 0 
  DIAM 1.47000003 1 0 0 1 ""
  POPS 0 0 0 0 0 0 0 0 1 1 1 1 0 0 0 0
  FLAP 0 1.47000003 0
SURF 4
  TYPE STANDARD
  CURV -6.158337002676000200E-002 0 0 0 0 ""
  HIDE 0 0 0 0 0 0 0 0 0 0
  MIRR 2 0
  SLAB 2
  DISZ 2.52193E-1
  GLAS SF1 0 0 0 0 0 0 0 0 0 0 
  DIAM 1.47000003 1 0 0 1 ""
  POPS 0 0 0 0 0 0 0 0 1 1 1 1 0 0 0 0
  FLAP 0 1.47000003 0
SURF 5
  TYPE STANDARD
  CURV 1.014157640664000000E+000 0 0 0 0 ""
  HIDE 0 0 0 0 0 0 0 0 0 0
  MIRR 2 0
  SLAB 3
  DISZ 4.33629E-1
  DIAM 8.10000002E-1 1 0 0 1 ""
  POPS 0 0 0 0 0 0 0 0 1 1 1 1 0 0 0 0
  FLAP 0 8.10000002E-1 0
SURF 6
  STOP
  TYPE STANDARD
  CURV 0.0 0 0 0 0 ""
  HIDE 0 0 0 0 0 0 0 0 0 0
  MIRR 2 0
  SLAB 4
  DISZ 2.77664E-1
  DIAM 8.00000012E-1 1 0 0 1 ""
  POPS 0 0 0 0 0 0 0 0 1 1 1 1 0 0 0 0
SURF 7
  TYPE STANDARD
  CURV -6.088724899231999800E-001 0 0 0 0 ""
  HIDE 0 0 0 0 0 0 0 0 0 0
  MIRR 2 0
  SLAB 5
  DISZ 2.70172E-1
  GLAS SF1 0 0 0 0 0 0 0 0 0 0 
  DIAM 8.10000002E-1 1 0 0 1 ""
  POPS 0 0 0 0 0 0 0 0 1 1 1 1 0 0 0 0
  FLAP 0 8.10000002E-1 0
SURF 8
  TYPE STANDARD
  CURV 5.546988539921999800E-001 0 0 0 0 ""
  HIDE 0 0 0 0 0 0 0 0 0 0
  MIRR 2 0
  SLAB 6
  DISZ 1.158584
  GLAS LAF2 0 0 0 0 0 0 0 0 0 0 
  DIAM 1.02499998 1 0 0 1 ""
  POPS 0 0 0 0 0 0 0 0 1 1 1 1 0 0 0 0
  FLAP 0 1.02499998 0
SURF 9
  TYPE STANDARD
  CURV -4.285151094428000200E-001 0 0 0 0 ""
  HIDE 0 0 0 0 0 0 0 0 0 0
  MIRR 2 0
  SLAB 7
  DISZ 4.47246E-1
  DIAM 1.02499998 1 0 0 1 ""
  POPS 0 0 0 0 0 0 0 0 1 1 1 1 0 0 0 0
  FLAP 0 1.02499998 0
SURF 10
  TYPE STANDARD
  CURV 6.026746701863000500E-001 0 0 0 0 ""
  HIDE 0 0 0 0 0 0 0 0 0 0
  MIRR 2 0
  SLAB 8
  DISZ 1.043759
  GLAS LAF2 0 0 0 0 0 0 0 0 0 0 
  DIAM 9.30000007E-1 1 0 0 1 ""
  POPS 0 0 0 0 0 0 0 0 1 1 1 1 0 0 0 0
  FLAP 0 9.30000007E-1 0
SURF 11
  TYPE STANDARD
  CURV 6.939028147473999500E-002 0 0 0 0 ""
  HIDE 0 0 0 0 0 0 0 0 0 0
  MIRR 2 0
  SLAB 9
  DISZ 8.12831E-1
  DIAM 9.30000007E-1 1 0 0 1 ""
  POPS 0 0 0 0 0 0 0 0 1 1 1 1 0 0 0 0
  FLAP 0 9.30000007E-1 0
SURF 12
  TYPE STANDARD
  CURV 0.0 0 0 0 0 ""
  HIDE 0 0 0 0 0 0 0 0 0 0
  MIRR 2 0
  SLAB 10
  DISZ 0
  DIAM 1.780292925302E-1 0 0 0 1 ""
  POPS 0 0 0 0 0 0 0 0 1 1 1 1 0 0 0 0
DMFS 0 0 0 0 0 0 0 0 0 0
BLNK Start of default merit function.
BLNK No default air thickness boundary constraints.
BLNK No default glass thickness boundary constraints.
BLNK Operands for field 1.
OPDX 0 1 0 0 3.35710687E-1 0 0 2.61799398E-2 0 0
OPDX 0 1 0 0 7.07106781E-1 0 0 4.18879037E-2 0 0
OPDX 0 1 0 0 9.41965145E-1 0 0 2.61799398E-2 0 0
OPDX 0 2 0 0 3.35710687E-1 0 0 5.23598797E-2 0 0
OPDX 0 2 0 0 7.07106781E-1 0 0 8.37758074E-2 0 0
OPDX 0 2 0 0 9.41965145E-1 0 0 5.23598797E-2 0 0
OPDX 0 3 0 0 3.35710687E-1 0 0 8.72664626E-2 0 0
OPDX 0 3 0 0 7.07106781E-1 0 0 1.3962634E-1 0 0
OPDX 0 3 0 0 9.41965145E-1 0 0 8.72664626E-2 0 0
OPDX 0 4 0 0 3.35710687E-1 0 0 5.23598797E-2 0 0
OPDX 0 4 0 0 7.07106781E-1 0 0 8.37758074E-2 0 0
OPDX 0 4 0 0 9.41965145E-1 0 0 5.23598797E-2 0 0
OPDX 0 5 0 0 3.35710687E-1 0 0 2.61799398E-2 0 0
OPDX 0 5 0 0 7.07106781E-1 0 0 4.18879037E-2 0 0
OPDX 0 5 0 0 9.41965145E-1 0 0 2.61799398E-2 0 0
BLNK Operands for field 2.
OPDX 0 1 0 1 1.67855344E-1 2.90733983E-1 0 8.72664661E-3 0 0
OPDX 0 1 0 1 3.53553391E-1 6.12372436E-1 0 1.39626346E-2 0 0
OPDX 0 1 0 1 4.70982573E-1 8.15765745E-1 0 8.72664661E-3 0 0
OPDX 0 1 0 1 3.35710687E-1 0 0 8.72664661E-3 0 0
OPDX 0 1 0 1 7.07106781E-1 0 0 1.39626346E-2 0 0
OPDX 0 1 0 1 9.41965145E-1 0 0 8.72664661E-3 0 0
OPDX 0 1 0 1 1.67855344E-1 -2.90733983E-1 0 8.72664661E-3 0 0
OPDX 0 1 0 1 3.53553391E-1 -6.12372436E-1 0 1.39626346E-2 0 0
OPDX 0 1 0 1 4.70982573E-1 -8.15765745E-1 0 8.72664661E-3 0 0
OPDX 0 2 0 1 1.67855344E-1 2.90733983E-1 0 1.74532932E-2 0 0
OPDX 0 2 0 1 3.53553391E-1 6.12372436E-1 0 2.79252691E-2 0 0
OPDX 0 2 0 1 4.70982573E-1 8.15765745E-1 0 1.74532932E-2 0 0
OPDX 0 2 0 1 3.35710687E-1 0 0 1.74532932E-2 0 0
OPDX 0 2 0 1 7.07106781E-1 0 0 2.79252691E-2 0 0
OPDX 0 2 0 1 9.41965145E-1 0 0 1.74532932E-2 0 0
OPDX 0 2 0 1 1.67855344E-1 -2.90733983E-1 0 1.74532932E-2 0 0
OPDX 0 2 0 1 3.53553391E-1 -6.12372436E-1 0 2.79252691E-2 0 0
OPDX 0 2 0 1 4.70982573E-1 -8.15765745E-1 0 1.74532932E-2 0 0
OPDX 0 3 0 1 1.67855344E-1 2.90733983E-1 0 2.90888209E-2 0 0
OPDX 0 3 0 1 3.53553391E-1 6.12372436E-1 0 4.65421134E-2 0 0
OPDX 0 3 0 1 4.70982573E-1 8.15765745E-1 0 2.90888209E-2 0 0
OPDX 0 3 0 1 3.35710687E-1 0 0 2.90888209E-2 0 0
OPDX 0 3 0 1 7.07106781E-1 0 0 4.65421134E-2 0 0
OPDX 0 3 0 1 9.41965145E-1 0 0 2.90888209E-2 0 0
OPDX 0 3 0 1 1.67855344E-1 -2.90733983E-1 0 2.90888209E-2 0 0
OPDX 0 3 0 1 3.53553391E-1 -6.12372436E-1 0 4.65421134E-2 0 0
OPDX 0 3 0 1 4.70982573E-1 -8.15765745E-1 0 2.90888209E-2 0 0
OPDX 0 4 0 1 1.67855344E-1 2.90733983E-1 0 1.74532932E-2 0 0
OPDX 0 4 0 1 3.53553391E-1 6.12372436E-1 0 2.79252691E-2 0 0
OPDX 0 4 0 1 4.70982573E-1 8.15765745E-1 0 1.74532932E-2 0 0
OPDX 0 4 0 1 3.35710687E-1 0 0 1.74532932E-2 0 0
OPDX 0 4 0 1 7.07106781E-1 0 0 2.79252691E-2 0 0
OPDX 0 4 0 1 9.41965145E-1 0 0 1.74532932E-2 0 0
OPDX 0 4 0 1 1.67855344E-1 -2.90733983E-1 0 1.74532932E-2 0 0
OPDX 0 4 0 1 3.53553391E-1 -6.12372436E-1 0 2.79252691E-2 0 0
OPDX 0 4 0 1 4.70982573E-1 -8.15765745E-1 0 1.74532932E-2 0 0
OPDX 0 5 0 1 1.67855344E-1 2.90733983E-1 0 8.72664661E-3 0 0
OPDX 0 5 0 1 3.53553391E-1 6.12372436E-1 0 1.39626346E-2 0 0
OPDX 0 5 0 1 4.70982573E-1 8.15765745E-1 0 8.72664661E-3 0 0
OPDX 0 5 0 1 3.35710687E-1 0 0 8.72664661E-3 0 0
OPDX 0 5 0 1 7.07106781E-1 0 0 1.39626346E-2 0 0
OPDX 0 5 0 1 9.41965145E-1 0 0 8.72664661E-3 0 0
OPDX 0 5 0 1 1.67855344E-1 -2.90733983E-1 0 8.72664661E-3 0 0
OPDX 0 5 0 1 3.53553391E-1 -6.12372436E-1 0 1.39626346E-2 0 0
OPDX 0 5 0 1 4.70982573E-1 -8.15765745E-1 0 8.72664661E-3 0 0
TOL TOFF   0   0              0              0   0 0 0
MNUM 1 1
MOFF   0   1 "" 0 0 0 1 1 0 0.0 ""
